<?xml version="1.0" encoding="UTF-8"?>

<!-- generated on Вс 17 мар 2019 17:40:18 by Eclipse SUMO netedit Version 1.1.0
<configuration xmlns:xsi="http://www.w3.org/2001/XMLSchema-instance" xsi:noNamespaceSchemaLocation="http://sumo.dlr.de/xsd/netconvertConfiguration.xsd">

    <input>
        <sumo-net-file value="/home/vlad/Projects/RoadNetwork/name.net.xml"/>
    </input>

    <output>
        <output-file value="/home/vlad/Projects/RoadNetwork/name.net.xml"/>
    </output>

    <processing>
        <geometry.max-grade.fix value="false"/>
        <offset.disable-normalization value="true"/>
        <lefthand value="false"/>
    </processing>

    <junctions>
        <no-turnarounds value="true"/>
        <junctions.corner-detail value="5"/>
        <junctions.limit-turn-speed value="5.5"/>
        <rectangular-lane-cut value="false"/>
    </junctions>

    <pedestrian>
        <walkingareas value="false"/>
    </pedestrian>

</configuration>
-->

<net version="1.1" junctionCornerDetail="5" limitTurnSpeed="5.50" xmlns:xsi="http://www.w3.org/2001/XMLSchema-instance" xsi:noNamespaceSchemaLocation="http://sumo.dlr.de/xsd/net_file.xsd">

    <location netOffset="100.00,0.00" convBoundary="0.00,0.00,300.00,100.00" origBoundary="-100.00,0.00,100.00,100.00" projParameter="!"/>

    <edge id=":1_0" function="internal">
        <lane id=":1_0_0" index="0" speed="13.89" length="11.20" shape="96.00,-1.60 107.20,-1.60"/>
    </edge>
    <edge id=":1_1" function="internal">
        <lane id=":1_1_0" index="0" speed="6.51" length="9.03" shape="96.00,-1.60 98.45,-1.25 100.20,-0.20 101.25,1.55 101.60,4.00"/>
    </edge>
    <edge id=":2_0" function="internal">
        <lane id=":2_0_0" index="0" speed="13.89" length="0.10" shape="200.00,-1.60 200.00,-1.60"/>
    </edge>
    <edge id=":3_0" function="internal">
        <lane id=":3_0_0" index="0" speed="3.90" length="2.58" shape="101.60,96.80 101.70,97.50 102.00,98.00 102.50,98.30 103.20,98.40"/>
    </edge>
    <edge id=":4_0" function="internal">
        <lane id=":4_0_0" index="0" speed="3.90" length="2.58" shape="296.80,98.40 297.50,98.30 298.00,98.00 298.30,97.50 298.40,96.80"/>
    </edge>

    <edge id="0to1" from="0" to="1" priority="-1">
        <lane id="0to1_0" index="0" speed="13.89" length="96.00" shape="0.00,-1.60 96.00,-1.60"/>
    </edge>
    <edge id="1to2" from="1" to="2" priority="-1">
        <lane id="1to2_0" index="0" speed="13.89" length="92.80" shape="107.20,-1.60 200.00,-1.60"/>
    </edge>
    <edge id="1to3" from="1" to="3" priority="-1">
        <lane id="1to3_0" index="0" speed="13.89" length="92.80" shape="101.60,4.00 101.60,96.80"/>
    </edge>
    <edge id="2to5" from="2" to="5" priority="-1">
        <lane id="2to5_0" index="0" speed="13.89" length="95.30" shape="200.00,-1.60 295.30,-1.60"/>
    </edge>
    <edge id="3to4" from="3" to="4" priority="-1">
        <lane id="3to4_0" index="0" speed="13.89" length="193.60" shape="103.20,98.40 296.80,98.40"/>
    </edge>
    <edge id="4to5" from="4" to="5" priority="-1">
        <lane id="4to5_0" index="0" speed="13.89" length="95.30" shape="298.40,96.80 298.40,1.50"/>
    </edge>

    <tlLogic id="2" type="static" programID="0" offset="0">
        <phase duration="10" state="G"/>
        <phase duration="3"  state="y"/>
        <phase duration="10" state="r"/>
    </tlLogic>

    <junction id="0" type="dead_end" x="0.00" y="0.00" incLanes="" intLanes="" shape="0.00,0.00 0.00,-3.20"/>
    <junction id="1" type="priority" x="100.00" y="0.00" incLanes="0to1_0" intLanes=":1_0_0 :1_1_0" shape="100.00,4.00 103.20,4.00 103.64,1.78 104.20,1.00 104.98,0.44 105.98,0.11 107.20,0.00 107.20,-3.20 96.00,-3.20 96.00,0.00 98.22,0.44 99.00,1.00 99.56,1.78 99.89,2.78">
        <request index="0" response="00" foes="00" cont="0"/>
        <request index="1" response="00" foes="00" cont="0"/>
    </junction>
    <junction id="2" type="traffic_light" x="200.00" y="0.00" incLanes="1to2_0" intLanes=":2_0_0" shape="200.00,0.00 200.00,-3.20 200.00,0.00">
        <request index="0" response="0" foes="0" cont="0"/>
    </junction>
    <junction id="3" type="priority" x="100.00" y="100.00" incLanes="1to3_0" intLanes=":3_0_0" shape="103.20,100.00 103.20,96.80 100.00,96.80 100.36,98.58 100.80,99.20 101.42,99.64 102.22,99.91">
        <request index="0" response="0" foes="0" cont="0"/>
    </junction>
    <junction id="4" type="priority" x="300.00" y="100.00" incLanes="3to4_0" intLanes=":4_0_0" shape="300.00,96.80 296.80,96.80 296.80,100.00 298.58,99.64 299.20,99.20 299.64,98.58 299.91,97.78">
        <request index="0" response="0" foes="0" cont="0"/>
    </junction>
    <junction id="5" type="dead_end" x="300.00" y="0.00" incLanes="4to5_0 2to5_0" intLanes="" shape="296.80,1.50 300.00,1.50 299.48,-1.11 298.82,-2.03 297.91,-2.68 296.74,-3.07 295.30,-3.20 295.30,0.00 296.13,0.17 296.42,0.37 296.63,0.67 296.76,1.04"/>

    <connection from="0to1" to="1to2" fromLane="0" toLane="0" via=":1_0_0" dir="s" state="M"/>
    <connection from="0to1" to="1to3" fromLane="0" toLane="0" via=":1_1_0" dir="l" state="M"/>
    <connection from="1to2" to="2to5" fromLane="0" toLane="0" via=":2_0_0" tl="2" linkIndex="0" dir="s" state="O"/>
    <connection from="1to3" to="3to4" fromLane="0" toLane="0" via=":3_0_0" dir="r" state="M"/>
    <connection from="3to4" to="4to5" fromLane="0" toLane="0" via=":4_0_0" dir="r" state="M"/>

    <connection from=":1_0" to="1to2" fromLane="0" toLane="0" dir="s" state="M"/>
    <connection from=":1_1" to="1to3" fromLane="0" toLane="0" dir="l" state="M"/>
    <connection from=":2_0" to="2to5" fromLane="0" toLane="0" dir="s" state="M"/>
    <connection from=":3_0" to="3to4" fromLane="0" toLane="0" dir="r" state="M"/>
    <connection from=":4_0" to="4to5" fromLane="0" toLane="0" dir="r" state="M"/>

</net>
