<configuration>
	<input>
		<net-file value="name.net.xml" />
		<route-files value="name.rou.xml" />
		<gui-settings-file value="name.settings.xml" />
	</input>
	
	<time>
		<begin value="0" />
		<end value="10000" />
	</time>
</configuration>
