<?xml version="1.0" encoding="UTF-8"?>

<!-- generated on Sun Mar 17 15:34:54 2019 by Eclipse SUMO netconvert Version 1.1.0
<configuration xmlns:xsi="http://www.w3.org/2001/XMLSchema-instance" xsi:noNamespaceSchemaLocation="http://sumo.dlr.de/xsd/netconvertConfiguration.xsd">

    <input>
        <node-files value="name.nod.xml"/>
        <edge-files value="name.edg.xml"/>
    </input>

    <output>
        <output-file value="name.net.xml"/>
    </output>

</configuration>
-->

<net version="1.1" junctionCornerDetail="5" limitTurnSpeed="5.50" xmlns:xsi="http://www.w3.org/2001/XMLSchema-instance" xsi:noNamespaceSchemaLocation="http://sumo.dlr.de/xsd/net_file.xsd">

    <location netOffset="100.00,0.00" convBoundary="0.00,0.00,200.00,100.00" origBoundary="-100.00,0.00,100.00,100.00" projParameter="!"/>

    <edge id=":2_0" function="internal">
        <lane id=":2_0_0" index="0" speed="13.89" length="11.20" shape="96.00,-1.60 107.20,-1.60"/>
    </edge>
    <edge id=":2_1" function="internal">
        <lane id=":2_1_0" index="0" speed="6.51" length="9.03" shape="96.00,-1.60 98.45,-1.25 100.20,-0.20 101.25,1.55 101.60,4.00"/>
    </edge>
    <edge id=":3_0" function="internal">
        <lane id=":3_0_0" index="0" speed="3.90" length="2.58" shape="101.60,96.80 101.70,97.50 102.00,98.00 102.50,98.30 103.20,98.40"/>
    </edge>
    <edge id=":5_0" function="internal">
        <lane id=":5_0_0" index="0" speed="3.90" length="2.58" shape="196.80,98.40 197.50,98.30 198.00,98.00 198.30,97.50 198.40,96.80"/>
    </edge>

    <edge id="1to2" from="1" to="2" priority="-1">
        <lane id="1to2_0" index="0" speed="13.89" length="96.00" shape="0.00,-1.60 96.00,-1.60"/>
    </edge>
    <edge id="2to3" from="2" to="3" priority="-1">
        <lane id="2to3_0" index="0" speed="13.89" length="92.80" shape="101.60,4.00 101.60,96.80"/>
    </edge>
    <edge id="2to4" from="2" to="4" priority="-1">
        <lane id="2to4_0" index="0" speed="13.89" length="88.10" shape="107.20,-1.60 195.30,-1.60"/>
    </edge>
    <edge id="3to5" from="3" to="5" priority="-1">
        <lane id="3to5_0" index="0" speed="13.89" length="93.60" shape="103.20,98.40 196.80,98.40"/>
    </edge>
    <edge id="5to4" from="5" to="4" priority="-1">
        <lane id="5to4_0" index="0" speed="13.89" length="95.30" shape="198.40,96.80 198.40,1.50"/>
    </edge>

    <junction id="1" type="dead_end" x="0.00" y="0.00" incLanes="" intLanes="" shape="0.00,0.00 0.00,-3.20"/>
    <junction id="2" type="priority" x="100.00" y="0.00" incLanes="1to2_0" intLanes=":2_0_0 :2_1_0" shape="100.00,4.00 103.20,4.00 103.64,1.78 104.20,1.00 104.98,0.44 105.98,0.11 107.20,0.00 107.20,-3.20 96.00,-3.20 96.00,0.00 98.22,0.44 99.00,1.00 99.56,1.78 99.89,2.78">
        <request index="0" response="00" foes="00" cont="0"/>
        <request index="1" response="00" foes="00" cont="0"/>
    </junction>
    <junction id="3" type="priority" x="100.00" y="100.00" incLanes="2to3_0" intLanes=":3_0_0" shape="103.20,100.00 103.20,96.80 100.00,96.80 100.36,98.58 100.80,99.20 101.42,99.64 102.22,99.91">
        <request index="0" response="0" foes="0" cont="0"/>
    </junction>
    <junction id="4" type="dead_end" x="200.00" y="0.00" incLanes="5to4_0 2to4_0" intLanes="" shape="196.80,1.50 200.00,1.50 199.48,-1.11 198.82,-2.03 197.91,-2.68 196.74,-3.07 195.30,-3.20 195.30,0.00 196.13,0.17 196.43,0.37 196.63,0.67 196.76,1.04"/>
    <junction id="5" type="priority" x="200.00" y="100.00" incLanes="3to5_0" intLanes=":5_0_0" shape="200.00,96.80 196.80,96.80 196.80,100.00 198.58,99.64 199.20,99.20 199.64,98.58 199.91,97.78">
        <request index="0" response="0" foes="0" cont="0"/>
    </junction>

    <connection from="1to2" to="2to4" fromLane="0" toLane="0" via=":2_0_0" dir="s" state="M"/>
    <connection from="1to2" to="2to3" fromLane="0" toLane="0" via=":2_1_0" dir="l" state="M"/>
    <connection from="2to3" to="3to5" fromLane="0" toLane="0" via=":3_0_0" dir="r" state="M"/>
    <connection from="3to5" to="5to4" fromLane="0" toLane="0" via=":5_0_0" dir="r" state="M"/>

    <connection from=":2_0" to="2to4" fromLane="0" toLane="0" dir="s" state="M"/>
    <connection from=":2_1" to="2to3" fromLane="0" toLane="0" dir="l" state="M"/>
    <connection from=":3_0" to="3to5" fromLane="0" toLane="0" dir="r" state="M"/>
    <connection from=":5_0" to="5to4" fromLane="0" toLane="0" dir="r" state="M"/>

</net>
