<edges>
	<edge id="1to2" from="1" to="2" />
	<edge id="2to3" from="2" to="3" />
	<edge id="2to4" from="2" to="4" />
</edges>
