<?xml version="1.0" encoding="UTF-8"?>

<!-- generated on Sun Mar 17 13:43:14 2019 by Eclipse SUMO netconvert Version 1.1.0
<configuration xmlns:xsi="http://www.w3.org/2001/XMLSchema-instance" xsi:noNamespaceSchemaLocation="http://sumo.dlr.de/xsd/netconvertConfiguration.xsd">

    <input>
        <node-files value="name.nod.xml"/>
        <edge-files value="name.edg.xml"/>
    </input>

    <output>
        <output-file value="name.net.xml"/>
    </output>

</configuration>
-->

<net version="1.1" junctionCornerDetail="5" limitTurnSpeed="5.50" xmlns:xsi="http://www.w3.org/2001/XMLSchema-instance" xsi:noNamespaceSchemaLocation="http://sumo.dlr.de/xsd/net_file.xsd">

    <location netOffset="250.00,0.00" convBoundary="0.00,0.00,500.00,250.00" origBoundary="-250.00,0.00,250.00,250.00" projParameter="!"/>

    <edge id=":2_0" function="internal">
        <lane id=":2_0_0" index="0" speed="13.89" length="11.20" shape="246.00,-1.60 257.20,-1.60"/>
    </edge>
    <edge id=":2_1" function="internal">
        <lane id=":2_1_0" index="0" speed="6.51" length="9.03" shape="246.00,-1.60 248.45,-1.25 250.20,-0.20 251.25,1.55 251.60,4.00"/>
    </edge>

    <edge id="1to2" from="1" to="2" priority="-1">
        <lane id="1to2_0" index="0" speed="13.89" length="246.00" shape="0.00,-1.60 246.00,-1.60"/>
    </edge>
    <edge id="2to3" from="2" to="3" priority="-1">
        <lane id="2to3_0" index="0" speed="13.89" length="246.00" shape="251.60,4.00 251.60,250.00"/>
    </edge>
    <edge id="2to4" from="2" to="4" priority="-1">
        <lane id="2to4_0" index="0" speed="13.89" length="242.80" shape="257.20,-1.60 500.00,-1.60"/>
    </edge>

    <junction id="1" type="dead_end" x="0.00" y="0.00" incLanes="" intLanes="" shape="0.00,0.00 0.00,-3.20"/>
    <junction id="2" type="priority" x="250.00" y="0.00" incLanes="1to2_0" intLanes=":2_0_0 :2_1_0" shape="250.00,4.00 253.20,4.00 253.64,1.78 254.20,1.00 254.98,0.44 255.98,0.11 257.20,0.00 257.20,-3.20 246.00,-3.20 246.00,0.00 248.22,0.44 249.00,1.00 249.56,1.78 249.89,2.78">
        <request index="0" response="00" foes="00" cont="0"/>
        <request index="1" response="00" foes="00" cont="0"/>
    </junction>
    <junction id="3" type="dead_end" x="250.00" y="250.00" incLanes="2to3_0" intLanes="" shape="253.20,250.00 250.00,250.00"/>
    <junction id="4" type="dead_end" x="500.00" y="0.00" incLanes="2to4_0" intLanes="" shape="500.00,-3.20 500.00,0.00"/>

    <connection from="1to2" to="2to4" fromLane="0" toLane="0" via=":2_0_0" dir="s" state="M"/>
    <connection from="1to2" to="2to3" fromLane="0" toLane="0" via=":2_1_0" dir="l" state="M"/>

    <connection from=":2_0" to="2to4" fromLane="0" toLane="0" dir="s" state="M"/>
    <connection from=":2_1" to="2to3" fromLane="0" toLane="0" dir="l" state="M"/>

</net>
