<nodes>
	<node id="1" x="-250" y="0" />
	<node id="2" x="0" y="0" />
	<node id="3" x="0" y="250" />
	<node id="4" x="250" y="0" />
</nodes>
