<configuration>
	<input>
		<net-file value="svhard.net.xml" />
		<route-files value="svhard.rou.xml" />
		<gui-settings-file value="svhard.settings.xml" />
	</input>
	
	<time>
		<begin value="0" />
		<end value="10000" />
	</time>
</configuration>
