<configuration>
	<input>
		<net-file value="sveasy.net.xml" />
		<route-files value="sveasy.rou.xml" />
		<gui-settings-file value="sveasy.settings.xml" />
	</input>
	
	<time>
		<begin value="0" />
		<end value="10000" />
	</time>
</configuration>
