<routes>
	<vType id="Car" accel="1" decel="5" sigma="0" length="2" maxSpeed="20" />
	<!--<route id="route0" edges="1to2 2to3 3to5 5to4" />-->
	<!--<vehicle id="veh0" depart="1" type="Car" route="route0" /> -->
	<flow id="flow0" begin="0" end="100" period="5" type="Car">
		<route edges="j0_to_j1 j1_to_j3 j3_to_j4 j4_to_j5" />
	</flow>
</routes>
