<configuration>
    <input>
        <net-file value="single-intersection-longer.net.xml"/>
        <route-files value="single-intersection-gen.rou.xml"/>
    </input>
    <time>
        <begin value="0"/>
        <end value="100000"/>
    </time>
</configuration>




